
  -OEChem-07052312133D

 26 28  0     0  0  0  0  0  0999 V2000
   -0.6093    0.8647   -0.3073 C   0  0  0  0  0  0  0  0  0  0  0  0
   -1.9680    0.7226   -0.5755 C   0  0  0  0  0  0  0  0  0  0  0  0
   -2.7070    1.8886   -0.7979 C   0  0  0  0  0  0  0  0  0  0  0  0
   -2.1226    3.1805   -0.7242 C   0  0  0  0  0  0  0  0  0  0  0  0
   -0.7468    3.3137   -0.4643 C   0  0  0  0  0  0  0  0  0  0  0  0
   -0.0306    2.1461   -0.2628 C   0  0  0  0  0  0  0  0  0  0  0  0
    1.2924    2.2285   -0.0044 F   0  0  0  0  0  0  0  0  0  0  0  0
   -3.1805    4.1366   -0.9336 C   0  0  0  0  0  0  0  0  0  0  0  0
   -4.3329    3.4209   -1.1331 C   0  0  0  0  0  0  0  0  0  0  0  0
   -4.0646    2.0442   -1.1068 N   0  0  0  0  0  0  0  0  0  0  0  0
   -5.0805    1.0867   -0.6994 C   0  0  0  0  0  0  0  0  0  0  0  0
   -6.4522    1.5097   -1.2121 C   0  0  0  0  0  0  0  0  0  0  0  0
   -6.7162    2.9594   -0.8456 N   0  3  0  0  0  0  0  0  0  0  0  0
   -5.6937    3.8808   -1.5116 C   0  0  0  0  0  0  0  0  0  0  0  0
    0.0225   -0.0007   -0.1350 H   0  0  0  0  0  0  0  0  0  0  0  0
   -2.4144   -0.2664   -0.6196 H   0  0  0  0  0  0  0  0  0  0  0  0
   -0.2521    4.2783   -0.4123 H   0  0  0  0  0  0  0  0  0  0  0  0
   -3.0830    5.2144   -0.9768 H   0  0  0  0  0  0  0  0  0  0  0  0
   -4.8603    0.1021   -1.1209 H   0  0  0  0  0  0  0  0  0  0  0  0
   -5.1006    0.9790    0.3954 H   0  0  0  0  0  0  0  0  0  0  0  0
   -6.5150    1.4583   -2.3010 H   0  0  0  0  0  0  0  0  0  0  0  0
   -7.2428    0.9004   -0.7712 H   0  0  0  0  0  0  0  0  0  0  0  0
   -7.6679    3.2238   -1.1268 H   0  0  0  0  0  0  0  0  0  0  0  0
   -6.6595    3.0746    0.1747 H   0  0  0  0  0  0  0  0  0  0  0  0
   -5.8882    4.9029   -1.1843 H   0  0  0  0  0  0  0  0  0  0  0  0
   -5.9000    3.8006   -2.5848 H   0  0  0  0  0  0  0  0  0  0  0  0
  1  2  1  0  0  0  0
  1  6  2  0  0  0  0
  1 15  1  0  0  0  0
  2  3  2  0  0  0  0
  2 16  1  0  0  0  0
  3  4  1  0  0  0  0
  3 10  1  0  0  0  0
  4  5  2  0  0  0  0
  4  8  1  0  0  0  0
  5  6  1  0  0  0  0
  5 17  1  0  0  0  0
  6  7  1  0  0  0  0
  8  9  2  0  0  0  0
  8 18  1  0  0  0  0
  9 10  1  0  0  0  0
  9 14  1  0  0  0  0
 10 11  1  0  0  0  0
 11 12  1  0  0  0  0
 11 19  1  0  0  0  0
 11 20  1  0  0  0  0
 12 13  1  0  0  0  0
 12 21  1  0  0  0  0
 12 22  1  0  0  0  0
 13 14  1  0  0  0  0
 13 23  1  0  0  0  0
 13 24  1  0  0  0  0
 14 25  1  0  0  0  0
 14 26  1  0  0  0  0
M  CHG  1  13   1
M  END
$$$$
