14   
torsion grid (-165,)
C        0.5240129335   -2.0055957425    0.4103017204
C       -1.9624799709    1.8002237815   -0.6657371741
C       -0.6379495972    0.0268350897    0.1454095048
O       -0.3405106389    0.6213582988    1.3909494375
O        0.4003682333   -0.7817655377   -0.3142513364
O       -0.8218883677    0.9659617054   -0.8694014432
H        1.3519556282   -2.5502393110   -0.0463363230
H       -0.3919233271   -2.6068181446    0.3271800670
H        0.7413396850   -1.8261543803    1.4695970193
H       -2.0159774585    2.4615666098   -1.5320049727
H       -1.8687554953    2.3952948160    0.2492287077
H       -2.8834043881    1.2026589305   -0.6109304332
H       -1.5564999243   -0.5527796575    0.3290826548
H        0.4899747736    1.1146697675    1.2638698904
14   
torsion grid (-150,)
C        0.4815367942   -2.0276129488    0.3760072006
C       -1.9771923938    1.7642097321   -0.6629249782
C       -0.5922097469    0.0705726180    0.2207652339
O       -0.3104866638    0.7555886863    1.4204747106
O        0.4823801704   -0.7176278416   -0.1896973510
O       -0.8348807531    0.9294209765   -0.8542471679
H        1.3691085053   -2.5308708906   -0.0111241252
H       -0.4114943853   -2.5884842233    0.0695591114
H        0.5325331416   -1.9940162233    1.4714589028
H       -2.0894996415    2.3438428364   -1.5806681408
H       -1.8454584527    2.4399342687    0.1889265780
H       -2.8833864913    1.1623563073   -0.5034239817
H       -1.4827606887   -0.5347254646    0.4494293109
H        0.5315606886    1.2230140865    1.2750125791
14   
torsion grid (-135,)
C        0.4365641609   -2.0341242098    0.3285824765
C       -1.9965104630    1.7184180542   -0.6700643091
C       -0.5575799351    0.1201340327    0.3072880151
O       -0.2795850801    0.9017262808    1.4447564885
O        0.5401959134   -0.6628585929   -0.0499284361
O       -0.8428632855    0.8917841522   -0.8259309800
H        1.3578813123   -2.5158063955   -0.0035569017
H       -0.4171388963   -2.5173354795   -0.1641989683
H        0.3441061387   -2.1469852679    1.4164944354
H       -2.1465591903    2.2189534321   -1.6281780465
H       -1.8550086197    2.4634812576    0.1200296313
H       -2.8856708805    1.1153618202   -0.4354365055
H       -1.4275215042   -0.4903536486    0.5907983466
H        0.5709912225    1.3429925463    1.2715443729
14   
torsion grid (-120,)
C        0.3884701653   -2.0424762455    0.2714446413
C       -2.0031330047    1.6480622506   -0.6816716260
C       -0.5203487570    0.1525474862    0.3958759316
O       -0.2305678819    1.0257389072    1.4571755262
O        0.5870495336   -0.6413169370    0.0955499200
O       -0.8339053577    0.8355494320   -0.7900878125
H        1.3319639958   -2.5231196510    0.0069285384
H       -0.4016151018   -2.4187848337   -0.3910126395
H        0.1422324465   -2.2856208494    1.3133148807
H       -2.1750603733    2.0734418967   -1.6719793143
H       -1.8678430721    2.4523373570    0.0493099761
H       -2.8771801475    1.0468550306   -0.3915394990
H       -1.3787455420   -0.4423297266    0.7395152196
H        0.6190635165    1.4493328924    1.2411743159
14   
torsion grid (-105,)
C        0.3389592500   -2.0335930958    0.2143957660
C       -1.9984909352    1.5643984763   -0.6840172569
C       -0.4785675650    0.1806120662    0.4929611269
O       -0.1625072681    1.1331541074    1.4710645759
O        0.6246573218   -0.6367395700    0.2512009512
O       -0.8098910631    0.7749429671   -0.7389987162
H        1.2889021051   -2.5388250591    0.0317848651
H       -0.3579519440   -2.2773598957   -0.5974429867
H       -0.0736092327   -2.3799500951    1.1711643191
H       -2.1807133194    1.9200806629   -1.6997182439
H       -1.8817396837    2.4183087911   -0.0079724092
H       -2.8585249416    0.9634735300   -0.3540650686
H       -1.3339565650   -0.3809223308    0.8958530223
H        0.6837306757    1.5338889971    1.2042916327
14   
torsion grid (-90,)
C        0.2875201453   -1.9952915403    0.1553904273
C       -1.9949873058    1.4856349571   -0.6766452891
C       -0.4456734704    0.2147862776    0.5906721167
O       -0.0906795740    1.2343811516    1.4784471589
O        0.6414918406   -0.6359793593    0.4068395573
O       -0.7918125492    0.7168558355   -0.6807921123
H        1.2240342925   -2.5485078114    0.0676849403
H       -0.2796066864   -2.0932439513   -0.7782382647
H       -0.2979925465   -2.4089144034    0.9874869833
H       -2.1825979047    1.7741402451   -1.7124999215
H       -1.8942508141    2.3827839555   -0.0559471389
H       -2.8443993074    0.8910441932   -0.3101026717
H       -1.3033179400   -0.2982312530    1.0515133829
H        0.7419492919    1.6147102960    1.1466670391
14   
torsion grid (-75,)
C        0.2590321177   -1.9520684727    0.1050499368
C       -1.9936747928    1.4022310246   -0.6724266725
C       -0.4295040426    0.2361216867    0.6769685212
O       -0.0327320447    1.3145167216    1.4671302438
O        0.6362813554   -0.6514576393    0.5590910906
O       -0.7914592758    0.6335650677   -0.6284074049
H        1.1635621434   -2.5620085032    0.1286283800
H       -0.1355899761   -1.9170684962   -0.9162045534
H       -0.4917896344   -2.3958365718    0.7734667796
H       -2.1911952246    1.6106965927   -1.7254863112
H       -1.8851496275    2.3446034334   -0.1241354432
H       -2.8399179596    0.8393936927   -0.2527924146
H       -1.2912190916   -0.2173466910    1.1919048748
H        0.7969624383    1.6497887495    1.0832967557
14   
torsion grid (-60,)
C        0.2675564376   -1.9018512488    0.0675677435
C       -1.9898858099    1.3505231879   -0.6546712425
C       -0.4255982756    0.2598546179    0.7546250017
O        0.0218986971    1.3840300274    1.4432592398
O        0.6117448422   -0.6686707844    0.7046189565
O       -0.8115079429    0.5493083344   -0.5721195500
H        1.1201140432   -2.5676282435    0.2126628323
H        0.0811472245   -1.7589878643   -1.0005645873
H       -0.6211680543   -2.3484366026    0.5350650112
H       -2.2116661433    1.4691301580   -1.7167781287
H       -1.8354288036    2.3343342363   -0.1979897008
H       -2.8397930050    0.8563831282   -0.1625948311
H       -1.2908408569   -0.1213694498    1.3213427636
H        0.8664227311    1.6421579929    1.0328195682
14   
torsion grid (-45,)
C        0.2886527380   -1.8728086805    0.0258371726
C       -1.9949113794    1.3211093594   -0.6375414746
C       -0.4448945586    0.2655639320    0.8097143602
O        0.0692440869    1.4175982356    1.3976581503
O        0.5511960312   -0.7123207974    0.8219816722
O       -0.8628106098    0.4596558087   -0.5237380576
H        1.0898509277   -2.5776373923    0.2561185368
H        0.2918622137   -1.6351255718   -1.0405415496
H       -0.6762537086   -2.3250550187    0.2915407915
H       -2.2552191212    1.3539458849   -1.6969837524
H       -1.7635109271    2.3311100919   -0.2821794243
H       -2.8490767577    0.9276275473   -0.0683533494
H       -1.3105002030   -0.0278875385    1.4261020022
H        0.9324864577    1.5798355810    0.9770557204
14   
torsion grid (-30,)
C        0.3118071726   -1.8631947424    0.0016086881
C       -2.0128200486    1.2943056553   -0.6243748894
C       -0.4873238709    0.2530611520    0.8545897043
O        0.1013909780    1.4188832578    1.3421743431
O        0.4550787698   -0.7788550737    0.9268602244
O       -0.9380459512    0.3669294989   -0.4753678262
H        1.0729457584   -2.5908668543    0.2901130925
H        0.4765981685   -1.5383390758   -1.0283398079
H       -0.6792497406   -2.3272507601    0.0769066840
H       -2.3100340272    1.2584093425   -1.6739083716
H       -1.6996098684    2.3104316033   -0.3621304120
H       -2.8684899041    1.0089432829    0.0036841053
H       -1.3464022732    0.0572900531    1.5159092700
H        0.9760509346    1.4830833492    0.9189197246
14   
torsion grid (-15,)
C        0.3408411048   -1.8431363967   -0.0039213143
C       -2.0347348591    1.2842354394   -0.6028831295
C       -0.5309072394    0.2449140984    0.8977105137
O        0.1351293432    1.4117547010    1.2848299171
O        0.3464383497   -0.8409569669    1.0207846443
O       -1.0206209275    0.2959947702   -0.4202381814
H        1.0619512605   -2.5921167233    0.3294834801
H        0.6487683713   -1.4376471726   -0.9712612193
H       -0.6453172892   -2.3082527797   -0.1100168788
H       -2.3707335426    1.1949411719   -1.6374102732
H       -1.6434801951    2.2912103471   -0.4245571724
H       -2.8841378224    1.1039724819    0.0706668275
H       -1.3711185427    0.1461868661    1.6011276240
H        1.0064510276    1.3898143788    0.8511737543
14   
torsion grid (0,)
C        0.3763327927   -1.8246038752   -0.0029215927
C       -2.0527406747    1.2717621822   -0.5917646030
C       -0.5682628483    0.2261879139    0.9249138154
O        0.1742917165    1.3820209320    1.2127367083
O        0.2323223849   -0.9112882854    1.0927894329
O       -1.0988671072    0.2309315696   -0.3764999439
H        1.0393968334   -2.6076980234    0.3700248840
H        0.8285488038   -1.3484742190   -0.8785882877
H       -0.5833311799   -2.2624541167   -0.2937677067
H       -2.4252887603    1.1430715869   -1.6094849515
H       -1.5922737749    2.2592628394   -0.4855810628
H       -2.8905182020    1.1874640726    0.1141569179
H       -1.3789623777    0.2197470864    1.6661200208
H        1.0243528757    1.2940243023    0.7473458464
14   
torsion grid (15,)
C        0.4115960455   -1.8062740815   -0.0018584915
C       -2.0808241093    1.2612789065   -0.5911025124
C       -0.6148182347    0.1939159517    0.9312668418
O        0.2012401665    1.3252334121    1.1309154867
O        0.1000176891   -0.9903346393    1.1349178392
O       -1.1851318351    0.1744228837   -0.3523073166
H        1.0151214904   -2.6247208129    0.3950859917
H        0.9921084784   -1.2630911426   -0.7566207300
H       -0.4921427597   -2.2043630639   -0.4709365809
H       -2.4900092551    1.1092716784   -1.5913938696
H       -1.5595621300    2.2226856608   -0.5432859114
H       -2.9010970101    1.2600832994    0.1397125258
H       -1.3890024887    0.2696290660    1.7042044337
H        1.0032486112    1.2014105380    0.5944736199
14   
torsion grid (30,)
C        0.4576785380   -1.7813554282    0.0021784903
C       -2.1031577741    1.2759054598   -0.5798606664
C       -0.6440933975    0.1645741285    0.9224849661
O        0.2510256877    1.2498615113    1.0441551896
O       -0.0274534491   -1.0665532818    1.1446632461
O       -1.2603500364    0.1474256911   -0.3407543038
H        0.9872552248   -2.6456569684    0.4069552884
H        1.1594745405   -1.1849699281   -0.5956168438
H       -0.3623600167   -2.1119639709   -0.6401182130
H       -2.5515401291    1.1232349240   -1.5631366850
H       -1.5311255278    2.2094199872   -0.5721038387
H       -2.8989999072    1.3364504714    0.1748839399
H       -1.3728616312    0.3128286275    1.7262530308
H        0.9553248095    1.1269424666    0.3846653177
14   
torsion grid (45,)
C        0.5139199630   -1.7690332564    0.0373508939
C       -2.1316796373    1.3053089693   -0.5512561299
C       -0.6653729097    0.1361008173    0.9037373129
O        0.3109928430    1.1558407494    0.9534887498
O       -0.1527923630   -1.1372289095    1.1342587543
O       -1.3322893710    0.1411134696   -0.3356565863
H        0.8935318182   -2.7140945681    0.4292438039
H        1.3662472653   -1.1761163277   -0.3224857571
H       -0.1725775051   -1.9581378708   -0.7918532165
H       -2.6284818711    1.1656264584   -1.5129622397
H       -1.5199426798    2.2135294451   -0.5781295796
H       -2.8911409430    1.4090509388    0.2354888278
H       -1.3442717370    0.3485995412    1.7352975848
H        0.8726447121    1.0664214109    0.1646502030
14   
torsion grid (60,)
C        0.5756806586   -1.7618581268    0.0911570136
C       -2.1856806477    1.3325724861   -0.5168745075
C       -0.6956973462    0.1077286901    0.8698083328
O        0.3448014511    1.0617425530    0.8387138164
O       -0.2656398795   -1.1940224780    1.0987109523
O       -1.4317025334    0.1335903794   -0.3321645565
H        0.7635300276   -2.7898321727    0.4047221341
H        1.5371986565   -1.2353224468    0.0299325861
H        0.0850534413   -1.7625424481   -0.8870082909
H       -2.7600916355    1.1992079913   -1.4352677167
H       -1.5357725398    2.2098620512   -0.6119770240
H       -2.8777723550    1.4921874092    0.3211090708
H       -1.3159778910    0.3741369296    1.7311940113
H        0.7753949109    0.9974158665   -0.0307672997
14   
torsion grid (75,)
C        0.6441186657   -1.7569183157    0.1359229820
C       -2.2325911120    1.3802445053   -0.4903685343
C       -0.7211860874    0.0860232114    0.8088343121
O        0.3646258212    0.9796183880    0.7122729651
O       -0.3586596551   -1.2411618379    1.0135556920
O       -1.5290604349    0.1456878573   -0.3465751738
H        0.7287882683   -2.8190177299    0.3708982645
H        1.6123375077   -1.2743721636    0.3141608418
H        0.3551154748   -1.6482882781   -0.9164108108
H       -2.8760369237    1.2703056378   -1.3650454827
H       -1.5497554814    2.2247940615   -0.6398787550
H       -2.8555277930    1.5804542791    0.3921938372
H       -1.2808367829    0.3868525605    1.7004411635
H        0.7108786678    0.9200522591   -0.1945999874
14   
torsion grid (90,)
C        0.7110494121   -1.7711295655    0.1895150389
C       -2.2760255065    1.4370374758   -0.4525947802
C       -0.7419324482    0.0650997245    0.7320352521
O        0.3739253804    0.9111973463    0.5948247449
O       -0.4346205936   -1.2862568170    0.8891060869
O       -1.6086697699    0.1764233534   -0.3749977792
H        0.7583076941   -2.8395033863    0.4063384371
H        1.6284612939   -1.2887892527    0.5435403822
H        0.6135991956   -1.6396906830   -0.8966351409
H       -2.9731792384    1.3673216803   -1.2893594676
H       -1.5746668479    2.2617106333   -0.6265276722
H       -2.8386575600    1.6393023569    0.4692262590
H       -1.2454556400    0.3782957174    1.6533156997
H        0.6693443317    0.8535973171   -0.3302597619
14   
torsion grid (105,)
C        0.7583423605   -1.7902870506    0.2461658829
C       -2.3238647033    1.4919314144   -0.4147708707
C       -0.7578468125    0.0554449656    0.6384646401
O        0.3782777148    0.8650595759    0.4648016125
O       -0.4949918921   -1.3152889710    0.7346729835
O       -1.6745271226    0.2192566238   -0.4179917130
H        0.7667177805   -2.8602785608    0.4610940912
H        1.5997427673   -1.3084181923    0.7540030227
H        0.8562809229   -1.6548031639   -0.8399725279
H       -3.0561345609    1.4670745003   -1.2235089148
H       -1.6164318999    2.3122841363   -0.5848161729
H       -2.8443426219    1.6638896500    0.5374258612
H       -1.2051299182    0.3705741223    1.5888738272
H        0.6312430433    0.8089466511   -0.4731521930
14   
torsion grid (120,)
C        0.7911267461   -1.8066164009    0.3085058424
C       -2.3637228865    1.5321361028   -0.3682196912
C       -0.7564658610    0.0509115785    0.5437817770
O        0.3911627089    0.8330157421    0.3205248169
O       -0.5277956509   -1.3322235149    0.5731644950
O       -1.7219990175    0.2581090792   -0.4549157409
H        0.7502655128   -2.8827906483    0.4869474354
H        1.5328038821   -1.3520236751    0.9728834015
H        1.0899805602   -1.6396817293   -0.7350953146
H       -3.1226954706    1.5483071816   -1.1520775639
H       -1.6566550831    2.3555584283   -0.5242938313
H       -2.8509812082    1.6608817061    0.6078670899
H       -1.1372335980    0.3642744740    1.5246355080
H        0.5948951149    0.7748634106   -0.6294578693
14   
torsion grid (135,)
C        0.7035200565   -1.8823826657    0.4627080446
C       -1.8330668476    1.9086051375   -0.6704618323
C       -0.9536670137   -0.1592819118    0.0666254059
O       -0.6956128578    0.1804821162    1.4084875450
O       -0.1059791773   -1.1482619369   -0.4548693849
O       -0.7833301084    0.9445774320   -0.7789046576
H        1.1749568687   -2.6658480900   -0.1338867769
H        0.1115418987   -2.3392821967    1.2634928093
H        1.4883905892   -1.2619440981    0.9116902643
H       -1.5990347493    2.6985113735   -1.3859384150
H       -1.8912799444    2.3326616871    0.3389721567
H       -2.8037566878    1.4643790356   -0.9289378800
H       -1.9935370480   -0.5150207839    0.0553565877
H        0.1156394554    0.7188094308    1.4099129526
14   
torsion grid (150,)
C        0.6574503278   -1.9211614015    0.4681076578
C       -1.8851716889    1.8911803480   -0.6758259535
C       -0.8673797746   -0.1046500905    0.0707792035
O       -0.5697728131    0.2800619482    1.3949926477
O        0.0260604589   -1.0425566247   -0.4636322420
O       -0.7878217645    0.9841737042   -0.8008038203
H        1.2044543865   -2.6444235939   -0.1397177700
H       -0.0729866610   -2.4507608852    1.0926800890
H        1.3601423542   -1.3943564232    1.1218660854
H       -1.7152631631    2.6800870687   -1.4102078366
H       -1.9350902400    2.3281020052    0.3284189184
H       -2.8374429766    1.3911849266   -0.8981208218
H       -1.8854728384   -0.5188572604    0.1200672346
H        0.2353396792    0.8262751251    1.3482341630
14   
torsion grid (165,)
C        0.6014694009   -1.9570612703    0.4656353842
C       -1.9257365565    1.8609091308   -0.6733269670
C       -0.7852122859   -0.0604931098    0.0823293323
O       -0.4694071053    0.3841675048    1.3851518407
O        0.1557243381   -0.9503393781   -0.4439620372
O       -0.7984079282    0.9968552773   -0.8270239161
H        1.2318580876   -2.6283338867   -0.1202222836
H       -0.2413984355   -2.5248340952    0.8831279349
H        1.1809554945   -1.5344094323    1.2920695058
H       -1.8227034834    2.6362788423   -1.4340704744
H       -1.9472775139    2.3213265207    0.3211197179
H       -2.8654972006    1.3167406523   -0.8386808064
H       -1.7731747984   -0.5362641850    0.1835274834
H        0.3395416889    0.9206381482    1.3005714045
14   
torsion grid (180,)
C        0.5618003615   -1.9815169252    0.4412036375
C       -1.9492735016    1.8331314918   -0.6596672998
C       -0.7027942476   -0.0147931860    0.1066330551
O       -0.3906346006    0.4957940560    1.3861565472
O        0.2895393639   -0.8571822228   -0.3958812974
O       -0.8073589607    0.9963880668   -0.8472487358
H        1.3021341230   -2.5823442860   -0.0894811834
H       -0.3432829454   -2.5840797809    0.6026048194
H        0.9601894615   -1.6749760660    1.4138656894
H       -1.9306030448    2.5623847535   -1.4711009409
H       -1.9137747597    2.3527199535    0.3044972351
H       -2.8792956975    1.2510875461   -0.7197086722
H       -1.6553909211   -0.5498732417    0.2480179026
H        0.4240243809    1.0191850316    1.2771993881
